Version 4.1
SHEET 1 880 680
WIRE 32 48 -16 48
WIRE 64 48 32 48
WIRE 240 48 144 48
WIRE 240 80 240 48
WIRE 240 96 240 80
WIRE -16 112 -16 48
WIRE -16 240 -16 192
WIRE 240 240 240 176
WIRE 240 240 -16 240
WIRE -16 272 -16 240
FLAG -16 272 0
FLAG 240 80 out
FLAG 32 48 in
SYMBOL res 160 32 R90
WINDOW 0 0 56 VBottom 2
WINDOW 3 32 56 VTop 2
SYMATTR InstName R1
SYMATTR Value 1k
SYMBOL voltage -16 96 R0
SYMATTR InstName V1
SYMATTR Value 10
SYMBOL res 224 80 R0
SYMATTR InstName R2
SYMATTR Value 1k
